Version 4
SHEET 1 880 680
WIRE 400 -272 0 -272
WIRE 0 -208 0 -272
WIRE 0 -80 0 -128
WIRE 400 -32 400 -272
WIRE 400 0 400 -32
WIRE 400 0 240 0
WIRE 576 0 400 0
WIRE 240 64 240 0
WIRE 576 64 576 0
WIRE 128 112 16 112
WIRE 464 112 416 112
WIRE 416 128 416 112
WIRE 416 128 368 128
WIRE 752 128 704 128
WIRE 128 160 16 160
WIRE 416 160 416 128
WIRE 464 160 416 160
WIRE 240 208 240 192
WIRE 400 208 240 208
WIRE 576 208 576 192
WIRE 576 208 400 208
WIRE 400 240 400 208
WIRE 400 240 192 240
WIRE 192 352 192 240
FLAG 400 -32 VDD
IOPIN 400 -32 In
FLAG 400 240 GND
IOPIN 400 240 In
FLAG 752 128 O
IOPIN 752 128 Out
FLAG 16 112 in1
IOPIN 16 112 In
FLAG 16 160 in2
IOPIN 16 160 In
FLAG 0 -80 0
FLAG 192 352 0
SYMBOL nand101 208 128 R0
SYMATTR InstName X1
SYMBOL nand101 544 128 R0
SYMATTR InstName X2
