Version 4
SHEET 1 880 680
WIRE 144 112 -32 112
WIRE 272 112 144 112
WIRE 464 128 336 128
WIRE 144 144 112 144
WIRE 272 144 144 144
WIRE 112 192 112 144
FLAG -32 192 0
FLAG 112 272 0
FLAG 464 128 Q
FLAG 144 112 V_A
FLAG 144 144 V_B
SYMBOL voltage -32 96 R0
WINDOW 3 -260 52 Left 2
WINDOW 123 0 0 Left 0
WINDOW 39 0 0 Left 0
SYMATTR InstName V1
SYMATTR Value PULSE(0 1.8 4n 10p 10p 6n 12n)
SYMBOL voltage 112 176 R0
WINDOW 3 -106 56 Left 2
WINDOW 123 0 0 Left 0
WINDOW 39 0 0 Left 0
SYMATTR InstName V2
SYMATTR Value PULSE(0 1.8 2n 10p 10p 5n 10n)
SYMBOL Muller_c_sutherland 304 128 R0
SYMATTR InstName X1
TEXT -16 16 Left 2 !.lib tsmc018.lib
TEXT -294 296 Left 2 !.tran 0 200n 0 10p
