Version 4
SHEET 1 880 708
WIRE 272 -16 272 -48
WIRE 272 -16 -368 -16
WIRE 272 0 272 -16
WIRE 272 0 96 0
WIRE -368 32 -368 -16
WIRE -368 32 -624 32
WIRE 96 32 96 0
WIRE 128 32 96 32
WIRE 272 48 272 0
WIRE 336 48 272 48
WIRE 96 64 96 32
WIRE 272 64 272 48
WIRE 128 112 128 32
WIRE 128 112 96 112
WIRE 336 112 336 48
WIRE 336 112 272 112
WIRE -624 144 -624 112
WIRE 48 144 16 144
WIRE 224 144 192 144
WIRE 96 176 96 160
WIRE 272 176 272 160
WIRE 272 176 96 176
WIRE 384 176 272 176
WIRE -160 192 -208 192
WIRE 16 192 16 144
WIRE 16 192 -160 192
WIRE 336 224 272 224
WIRE -160 240 -160 192
WIRE -160 240 -592 240
WIRE 16 256 16 192
WIRE 224 256 16 256
WIRE 272 288 272 272
WIRE 336 288 336 224
WIRE 336 288 272 288
WIRE -592 336 -592 320
WIRE -528 336 -592 336
WIRE 272 336 272 288
WIRE -592 352 -592 336
WIRE -80 352 -208 352
WIRE 192 352 192 144
WIRE 192 352 -80 352
WIRE 320 384 272 384
WIRE -528 416 -528 336
WIRE -80 416 -80 352
WIRE -80 416 -528 416
WIRE 192 416 192 352
WIRE 224 416 192 416
WIRE 272 464 272 432
WIRE 320 464 320 384
WIRE 320 464 272 464
WIRE -464 512 -464 496
WIRE -464 512 -528 512
WIRE 272 512 272 464
WIRE 272 512 -464 512
WIRE -464 544 -464 512
WIRE 272 576 272 512
FLAG 384 176 out
IOPIN 384 176 Out
FLAG -208 192 in1
IOPIN -208 192 In
FLAG 272 -48 VDD
IOPIN 272 -48 In
FLAG 272 576 GND
IOPIN 272 576 In
FLAG -208 352 in2
IOPIN -208 352 In
FLAG -624 144 0
SYMBOL nmos4 224 176 R0
SYMATTR InstName M1
SYMATTR Value2 l=180n w=360n
SYMATTR Value CMOSN
SYMBOL pmos4 224 64 R0
SYMATTR InstName M2
SYMATTR Value2 l=180n w=360n
SYMATTR Value CMOSP
SYMBOL pmos4 48 64 R0
SYMATTR InstName M3
SYMATTR Value CMOSP
SYMATTR Value2 l=180n w=360n
SYMBOL nmos4 224 336 R0
SYMATTR InstName M4
SYMATTR Value CMOSN
SYMATTR Value2 l=180n w=360n
TEXT -504 -64 Left 2 !.lib tsmc018.lib
TEXT 352 304 Left 2 ;W=360nm, L=180nm
TEXT 352 88 Left 2 ;W=360nm, L=180nm
TEXT 360 464 Left 2 ;W=360nm, L=180nm
TEXT -192 88 Left 2 ;W=360nm, L=180nm
