Version 4
SHEET 1 880 680
WIRE 96 -224 -384 -224
WIRE -384 -176 -384 -224
WIRE 96 -128 96 -224
WIRE 176 -128 176 -144
WIRE 176 -128 96 -128
WIRE -384 -64 -384 -96
WIRE 176 -64 176 -128
WIRE 176 -64 -288 -64
WIRE 560 -64 176 -64
WIRE 176 0 176 -64
WIRE 64 48 -128 48
WIRE 400 64 304 64
WIRE -224 80 -448 80
WIRE -128 80 -128 48
WIRE -128 80 -224 80
WIRE -448 96 -448 80
WIRE -128 96 -128 80
WIRE 64 96 -128 96
WIRE 560 96 560 -64
WIRE 400 144 400 64
WIRE 448 144 400 144
WIRE 176 160 176 128
WIRE 336 160 176 160
WIRE 768 160 688 160
WIRE -448 192 -448 176
WIRE -288 192 -288 -64
WIRE 176 192 -288 192
WIRE 448 192 400 192
WIRE 176 240 176 192
WIRE -208 272 -384 272
WIRE 64 288 -128 288
WIRE -384 304 -384 272
WIRE 400 304 400 192
WIRE 400 304 304 304
WIRE -208 320 -208 272
WIRE -208 320 -224 320
WIRE -128 320 -128 288
WIRE -128 320 -208 320
WIRE -128 336 -128 320
WIRE 64 336 -128 336
WIRE 176 384 176 368
WIRE 336 384 336 160
WIRE 336 384 176 384
WIRE 560 384 560 224
WIRE 560 384 336 384
WIRE -384 400 -384 384
WIRE 336 400 336 384
WIRE 336 400 -384 400
WIRE -384 416 -384 400
WIRE 336 416 336 400
FLAG -224 80 A
IOPIN -224 80 In
FLAG -224 320 B
IOPIN -224 320 In
FLAG 768 160 O
IOPIN 768 160 Out
FLAG 176 -144 VDD
IOPIN 176 -144 In
FLAG 336 416 GND
IOPIN 336 416 In
FLAG -448 192 0
FLAG -384 -64 0
SYMBOL nand101 144 304 R0
SYMATTR InstName X2
SYMBOL nand101 528 160 R0
SYMATTR InstName X3
SYMBOL nand101 144 64 R0
SYMATTR InstName X1
