Version 4
SHEET 1 2128 680
WIRE -544 -784 -912 -784
WIRE 1760 -784 -544 -784
WIRE 1904 -784 1760 -784
WIRE 848 -688 784 -688
WIRE 848 -656 848 -688
WIRE 944 -656 848 -656
WIRE 1600 -656 1104 -656
WIRE 1760 -656 1760 -784
WIRE 1104 -640 1104 -656
WIRE 1104 -640 1008 -640
WIRE 944 -624 640 -624
WIRE 1600 -624 1600 -656
WIRE 1648 -624 1600 -624
WIRE -544 -608 -544 -784
WIRE -544 -608 -672 -608
WIRE -352 -608 -544 -608
WIRE 2000 -592 1856 -592
WIRE 1648 -560 1248 -560
WIRE -672 -512 -672 -608
WIRE 640 -496 640 -624
WIRE 864 -496 640 -496
WIRE -768 -480 -912 -480
WIRE -512 -464 -592 -464
WIRE 864 -464 864 -496
WIRE 944 -464 864 -464
WIRE 1408 -464 1104 -464
WIRE -352 -448 -352 -608
WIRE 1104 -448 1104 -464
WIRE 1104 -448 1008 -448
WIRE -768 -432 -912 -432
WIRE 944 -432 784 -432
WIRE -512 -416 -512 -464
WIRE -464 -416 -512 -416
WIRE -672 -384 -672 -400
WIRE -560 -384 -672 -384
WIRE 640 -384 640 -496
WIRE 640 -384 -256 -384
WIRE 1760 -384 1760 -528
WIRE 1888 -384 1760 -384
WIRE -544 -368 -544 -608
WIRE -544 -368 -672 -368
WIRE -464 -352 -512 -352
WIRE -672 -336 -672 -368
WIRE -768 -304 -912 -304
WIRE -512 -288 -512 -352
WIRE -512 -288 -592 -288
WIRE -768 -256 -912 -256
WIRE -560 -240 -560 -384
WIRE -528 -240 -560 -240
WIRE -352 -240 -352 -320
WIRE -352 -240 -528 -240
WIRE -224 -240 -352 -240
WIRE -672 -192 -672 -224
WIRE -528 -192 -528 -240
WIRE -528 -192 -672 -192
WIRE -448 -192 -448 -224
WIRE 1904 -192 1904 -784
WIRE 1904 -192 1744 -192
WIRE -544 -160 -672 -160
WIRE -448 -160 -448 -192
WIRE -448 -160 -544 -160
WIRE -352 -160 -448 -160
WIRE -672 -112 -672 -160
WIRE -768 -80 -912 -80
WIRE 896 -80 784 -80
WIRE -512 -64 -592 -64
WIRE 1744 -64 1744 -192
WIRE -352 -48 -352 -160
WIRE 896 -48 896 -80
WIRE 944 -48 896 -48
WIRE 1312 -48 1104 -48
WIRE -768 -32 -912 -32
WIRE 1104 -32 1104 -48
WIRE 1104 -32 1008 -32
WIRE 1408 -32 1408 -464
WIRE 1632 -32 1408 -32
WIRE -512 -16 -512 -64
WIRE -464 -16 -512 -16
WIRE 944 -16 688 -16
WIRE 1984 0 1840 0
WIRE -672 16 -672 0
WIRE -560 16 -672 16
WIRE 688 16 688 -16
WIRE 688 16 -256 16
WIRE -544 32 -544 -160
WIRE -544 32 -672 32
WIRE 1312 32 1312 -48
WIRE 1632 32 1312 32
WIRE -464 48 -512 48
WIRE -672 64 -672 32
WIRE -768 96 -912 96
WIRE -512 112 -512 48
WIRE -512 112 -592 112
WIRE 688 112 688 16
WIRE 896 112 688 112
WIRE -768 144 -912 144
WIRE 896 144 896 112
WIRE 944 144 896 144
WIRE 1248 144 1248 -560
WIRE 1248 144 1104 144
WIRE 1104 160 1104 144
WIRE 1104 160 1008 160
WIRE 944 176 784 176
WIRE 1744 224 1744 64
WIRE 1888 224 1888 -384
WIRE 1888 224 1744 224
WIRE -672 288 -672 176
WIRE -560 288 -560 16
WIRE -560 288 -672 288
WIRE -352 288 -352 80
WIRE -352 288 -560 288
WIRE -560 432 -560 288
WIRE -560 432 -1008 432
WIRE -224 432 -224 -240
WIRE -224 432 -560 432
WIRE 1744 432 1744 224
WIRE 1744 432 -224 432
FLAG -912 -480 A0
IOPIN -912 -480 In
FLAG -912 -304 A1
IOPIN -912 -304 In
FLAG -912 -256 B1
IOPIN -912 -256 In
FLAG -912 -432 B0
IOPIN -912 -432 In
FLAG -912 -80 A0
IOPIN -912 -80 In
FLAG -912 96 A1
IOPIN -912 96 In
FLAG -912 144 B0
IOPIN -912 144 In
FLAG -912 -32 B1
IOPIN -912 -32 In
FLAG 784 -688 Cin1
IOPIN 784 -688 In
FLAG 784 -80 Cin1
IOPIN 784 -80 In
FLAG 784 176 Cin0
IOPIN 784 176 In
FLAG 784 -432 Cin0
IOPIN 784 -432 In
FLAG 2000 -592 SUM1
IOPIN 2000 -592 Out
FLAG 1984 0 SUM0
IOPIN 1984 0 Out
FLAG -912 -784 VDD
IOPIN -912 -784 In
FLAG -1008 432 GND
IOPIN -1008 432 In
FLAG -448 -192 VDD
SYMBOL AND -704 -464 R0
SYMATTR InstName X1
SYMBOL AND -704 -288 R0
SYMATTR InstName X2
SYMBOL or -368 -384 R0
SYMATTR InstName X3
SYMBOL AND -704 -64 R0
SYMATTR InstName X4
SYMBOL AND -704 112 R0
SYMATTR InstName X5
SYMBOL or -368 16 R0
SYMATTR InstName X6
SYMBOL Muller_c_sutherland 976 -32 R0
SYMATTR InstName X7
SYMBOL Muller_c_sutherland 976 160 R0
SYMATTR InstName X8
SYMBOL or 1744 -592 R0
SYMATTR InstName X9
SYMBOL or 1728 0 R0
SYMATTR InstName X10
SYMBOL Muller_c_sutherland 976 -640 R0
SYMATTR InstName X11
SYMBOL Muller_c_sutherland 976 -448 R0
SYMATTR InstName X12
